-------------------------------------------------------
          Amber 14 SANDER                              2014
          -------------------------------------------------------

  [-O]verwriting output

File Assignments:

 Here is the input file:

NPT equilibration 100 ps
 &cntrl
  imin=0, irest=1, ntx=5,
  ntb=2, cut=9.0, iamoeba=1,
  ntf=1, ntc=1,
  ntt=3, temp0=298.15, gamma_ln=1.0, ig=-1,
  ntp=1, pres0=1.013, taup=1.0,
  nstlim=100000, dt=0.001,
  ntpr=1000, ntwr=1000, ntwx=10000,
  ioutfm=1, iwrap=1,
 /
 &ewald
  order=5, ew_coeff=0.45,
 /
 &amoeba
  ee_dsum_cut=7.0, dipole_scf_tol=0.01, amoeba_verbose=0,
  dipole_scf_iter_max=50, do_vdw_longrange=1,
  sor_coefficient=0.7, do_vdw_taper=1,
 /
/

--------------------------------------------------------------------------------
   1.  RESOURCE   USE:
--------------------------------------------------------------------------------

 getting new box info from bottom of inpcrd

 NATOM  =    2006 NTYPES =       1 NBONH =       0 MBONA  =       0
 NTHETH =       0 MTHETA =       0 NPHIH =       0 MPHIA  =       0
 NHPARM =       0 NPARM  =       0 NNB   =    2178 NRES   =     660
 NBONA  =       0 NTHETA =       0 NPHIA =       0 NUMBND =       0
 NUMANG =       0 NPTRA  =       0 NATYP =       1 NPHB   =       0
 IFBOX  =       1 NMXRS  =       0 IFCAP =       0 NEXTRA =       0
 NCOPY  =       0

     BOX TYPE: RECTILINEAR

--------------------------------------------------------------------------------
   2.  CONTROL  DATA  FOR  THE  RUN
--------------------------------------------------------------------------------

l04_in_wat

General flags:
     imin    =       0, nmropt  =       0

Nature and format of input:
     ntx     =       5, irest   =       1, ntrx    =       1

Nature and format of output:
     ntxo    =       1, ntpr    =    1000, ntrx    =       1, ntwr    =    1000
     iwrap   =       1, ntwx    =   10000, ntwv    =       0, ntwe    =       0
     ioutfm  =       1, ntwprt  =       0, idecomp =       0, rbornstat=      0

Potential function:
     ntf     =       1, ntb     =       2, igb     =       0, nsnb    =      25
     ipol    =       0, gbsa    =       0, iesp    =       0
     cut     =   9.00000
     scnb    =   2.00000, scee    =   1.20000

Frozen or restrained atoms:
     ibelly  =       0, ntr     =       0

Molecular dynamics:
     nstlim  =    100000, nscm    =      1000, nrespa  =         1
     t       =   0.00000, dt      =   0.00100, vlimit  =  20.00000

Langevin dynamics temperature regulation:
     ig      =      -1
     temp0   = 298.15000, tempi   =   0.00000, gamma_ln=   1.00000

Pressure regulation:
     ntp     =       1
     pres0   =   1.01300, comp    =  44.60000, taup    =   1.00000

Ewald parameters:
     verbose =       0, ew_type =       0, nbflag  =       1, use_pme =       1
     vdwmeth =       1, eedmeth =       1, netfrc  =       1
     Box X =   30.000   Box Y =   30.000   Box Z =   30.000
     Alpha =   90.000   Beta  =   90.000   Gamma =   90.000
     NFFT1 =   30       NFFT2 =   30       NFFT3 =   30
     Cutoff=    9.000   Tol   =0.113E-08
     Ewald Coefficient =  0.45000
     Interpolation order =    5

--------------------------------------------------------------------------------
   3.  ATOMIC COORDINATES AND VELOCITIES
--------------------------------------------------------------------------------

l04_in_wat
 begin time read from input coords =    25.000 ps

--------------------------------------------------------------------------------
   4.  RESULTS
 NSTEP =     1000   TIME(PS) =      26.000  TEMP(K) =   300.18  PRESS =  -755.0
 Etot   =     -3818.5796  EKtot   =      1794.9430  EPtot      =     -5613.5226
 BOND   =       561.6072  ANGLE   =       269.5253  DIHED      =         1.4321
 1-4 NB =         7.6302  1-4 EEL =         0.0000  VDWAALS    =      2882.6765
 EELEC  =     -6586.6320  EHBOND  =         0.0000  RESTRAINT  =         0.0000
 EKCMT  =      1794.9430  VIRIAL  =      4460.9800  VOLUME     =     26370.5700
 EPOLZ  =     -2749.7619
 Dipole convergence: rms =  0.883E-02 iters =   4.00
                                                    Density    =         0.7571
 ------------------------------------------------------------------------------

      A V E R A G E S   O V E R  100000 S T E P S

 NSTEP =   100000   TIME(PS) =     125.000  TEMP(K) =   298.53  PRESS =   -65.3
 Etot   =     -3982.7390  EKtot   =      1785.0320  EPtot      =     -5767.7709
 BOND   =       550.4309  ANGLE   =       268.8870  DIHED      =        -0.7804
 1-4 NB =         6.9457  1-4 EEL =         0.0000  VDWAALS    =      2804.9412
 EELEC  =     -6627.1811  EHBOND  =         0.0000  RESTRAINT  =         0.0000
 EKCMT  =      1785.0320  VIRIAL  =      3636.6945  VOLUME     =     20341.0226
 EPOLZ  =     -2771.0143
 Dipole convergence: rms =  0.871E-02 iters =   4.00
                                                    Density    =         0.9853
 ------------------------------------------------------------------------------

      R M S  F L U C T U A T I O N S

 NSTEP =   100000   TIME(PS) =     125.000  TEMP(K) =     5.54  PRESS =   714.8
 Etot   =        74.6322  EKtot   =        33.1528  EPtot      =        66.8811
 BOND   =        20.1858  ANGLE   =        14.8529  DIHED      =         1.3513
 1-4 NB =         1.1700  1-4 EEL =         0.0000  VDWAALS    =        71.9450
 EELEC  =        75.4361  EHBOND  =         0.0000  RESTRAINT  =         0.0000
 EKCMT  =        33.1528  VIRIAL  =       646.3272  VOLUME     =      1376.6052
 EPOLZ  =        45.3935
 Dipole convergence: rms =  0.139E-03 iters =   0.00
                                                    Density    =         0.0554
 ------------------------------------------------------------------------------
