-------------------------------------------------------
          Amber 14 SANDER                              2014
          -------------------------------------------------------

  [-O]verwriting output

File Assignments:

 Here is the input file:

NVT heating 25 ps
 &cntrl
  imin=0, irest=0, ntx=1,
  ntb=1, cut=9.0, iamoeba=1,
  ntf=1, ntc=1,
  ntt=3, temp0=300.0, gamma_ln=1.0, ig=-1, tempi=0.0,
  nstlim=25000, dt=0.001,
  ntpr=1000, ntwr=1000, ntwx=1000,
  nmropt=1, ioutfm=1, iwrap=1,
 /
 &ewald
  order=5, ew_coeff=0.45,
 /
 &amoeba
  ee_dsum_cut=7.0, dipole_scf_tol=0.01, amoeba_verbose=0,
  dipole_scf_iter_max=50, do_vdw_longrange=1,
  sor_coefficient=0.7, do_vdw_taper=1,
 /
 &wt TYPE=TEMP0, ISTEP1=1, ISTEP2=20000, VALUE1=0.0, VALUE2=300.0
 /
 &wt TYPE=TEMP0, ISTEP1=20001, ISTEP2=25000, VALUE1=300.0, VALUE2=300.0
 /
 &wt TYPE=END
/

--------------------------------------------------------------------------------
   1.  RESOURCE   USE:
--------------------------------------------------------------------------------

 getting new box info from bottom of inpcrd

 NATOM  =    2006 NTYPES =       1 NBONH =       0 MBONA  =       0
 NTHETH =       0 MTHETA =       0 NPHIH =       0 MPHIA  =       0
 NHPARM =       0 NPARM  =       0 NNB   =    2178 NRES   =     660
 NBONA  =       0 NTHETA =       0 NPHIA =       0 NUMBND =       0
 NUMANG =       0 NPTRA  =       0 NATYP =       1 NPHB   =       0
 IFBOX  =       1 NMXRS  =       0 IFCAP =       0 NEXTRA =       0
 NCOPY  =       0

     BOX TYPE: RECTILINEAR

--------------------------------------------------------------------------------
   2.  CONTROL  DATA  FOR  THE  RUN
--------------------------------------------------------------------------------

l04_in_wat

General flags:
     imin    =       0, nmropt  =       1

Nature and format of input:
     ntx     =       1, irest   =       0, ntrx    =       1

Nature and format of output:
     ntxo    =       1, ntpr    =    1000, ntrx    =       1, ntwr    =    1000
     iwrap   =       1, ntwx    =    1000, ntwv    =       0, ntwe    =       0
     ioutfm  =       1, ntwprt  =       0, idecomp =       0, rbornstat=      0

Potential function:
     ntf     =       1, ntb     =       1, igb     =       0, nsnb    =      25
     ipol    =       0, gbsa    =       0, iesp    =       0
     cut     =   9.00000
     scnb    =   2.00000, scee    =   1.20000

Frozen or restrained atoms:
     ibelly  =       0, ntr     =       0

Molecular dynamics:
     nstlim  =     25000, nscm    =      1000, nrespa  =         1
     t       =   0.00000, dt      =   0.00100, vlimit  =  20.00000

Langevin dynamics temperature regulation:
     ig      =      -1
     temp0   = 300.00000, tempi   =   0.00000, gamma_ln=   1.00000

NMR refinement options:
     iscale  =       0, noeskp  =       1, ipnlty  =       1, mxsub   =       1
     scalm   = 100.00000, pencut  =   0.10000, tausw   =   0.10000

Ewald parameters:
     verbose =       0, ew_type =       0, nbflag  =       1, use_pme =       1
     vdwmeth =       1, eedmeth =       1, netfrc  =       1
     Box X =   30.000   Box Y =   30.000   Box Z =   30.000
     Alpha =   90.000   Beta  =   90.000   Gamma =   90.000
     NFFT1 =   30       NFFT2 =   30       NFFT3 =   30
     Cutoff=    9.000   Tol   =0.113E-08
     Ewald Coefficient =  0.45000
     Interpolation order =    5

--------------------------------------------------------------------------------
   3.  ATOMIC COORDINATES AND VELOCITIES
--------------------------------------------------------------------------------

l04_in_wat
 begin time read from input coords =     0.000 ps

           Begin reading energy term weight changes/NMR restraints
 WEIGHT CHANGES:
 TEMP0         1  20000    0.000000  300.000000      0      0
 TEMP0     20001  25000  300.000000  300.000000      0      0

 RESTRAINTS:
                          ** No restraint defined **

                  Done reading weight changes/NMR restraints

--------------------------------------------------------------------------------
   4.  RESULTS
 NSTEP =        0   TIME(PS) =       0.000  TEMP(K) =     0.00  PRESS =     0.0
 Etot   =     -7289.3429  EKtot   =         0.0000  EPtot      =     -7289.3429
 BOND   =        85.8455  ANGLE   =       101.6359  DIHED      =        -1.9861
 1-4 NB =         5.7706  1-4 EEL =         0.0000  VDWAALS    =      3549.8712
 EELEC  =     -7673.1538  EHBOND  =         0.0000  RESTRAINT  =         0.0000
 EPOLZ  =     -3357.3262
 Dipole convergence: rms =  0.571E-02 iters =   5.00
 ------------------------------------------------------------------------------

      A V E R A G E S   O V E R   25000 S T E P S

 NSTEP =    25000   TIME(PS) =      25.000  TEMP(K) =   227.19  PRESS =     0.0
 Etot   =     -4761.1087  EKtot   =      1358.4824  EPtot      =     -6119.5911
 BOND   =       442.2376  ANGLE   =       228.3605  DIHED      =        -0.3008
 1-4 NB =         6.6531  1-4 EEL =         0.0000  VDWAALS    =      3071.0520
 EELEC  =     -6937.8492  EHBOND  =         0.0000  RESTRAINT  =         0.0000
 EPOLZ  =     -2929.7444
 Dipole convergence: rms =  0.849E-02 iters =   4.12
 ------------------------------------------------------------------------------

      R M S  F L U C T U A T I O N S

 NSTEP =    25000   TIME(PS) =      25.000  TEMP(K) =    96.69  PRESS =     0.0
 Etot   =      1257.5858  EKtot   =       578.1533  EPtot      =       682.9749
 BOND   =       154.4219  ANGLE   =        54.9156  DIHED      =         1.3648
 1-4 NB =         1.0281  1-4 EEL =         0.0000  VDWAALS    =       404.2461
 EELEC  =       565.4188  EHBOND  =         0.0000  RESTRAINT  =         0.0000
 EPOLZ  =       316.0761
 Dipole convergence: rms =  0.114E-02 iters =   0.33
 ------------------------------------------------------------------------------
