-------------------------------------------------------
          Amber 14 SANDER                              2014
          -------------------------------------------------------

  [-O]verwriting output

File Assignments:

 Here is the input file:

NPT production 600 ps
 &cntrl
  imin=0, irest=1, ntx=5,
  ntb=2, cut=9.0, iamoeba=1,
  ntf=1, ntc=1,
  ntt=3, temp0=298.15, gamma_ln=1.0, ig=-1,
  ntp=1, pres0=1.013, taup=1.0,
  nstlim=600000, dt=0.001,
  ntpr=1000, ntwr=1000, ntwx=1000,
  ioutfm=1, iwrap=1,
 /
 &ewald
  order=5, ew_coeff=0.45,
 /
 &amoeba
  ee_dsum_cut=7.0, dipole_scf_tol=0.01, amoeba_verbose=0,
  dipole_scf_iter_max=50, do_vdw_longrange=1, do_vdw_taper=1,
  sor_coefficient=0.7,
   soft_lambda=0.6, soft_alpha=0.7, soft_expo=5,
   vdw_longrange_lambda=0.6,
 /
/

--------------------------------------------------------------------------------
   1.  RESOURCE   USE:
--------------------------------------------------------------------------------

 getting new box info from bottom of inpcrd

 NATOM  =    2006 NTYPES =       1 NBONH =       0 MBONA  =       0
 NTHETH =       0 MTHETA =       0 NPHIH =       0 MPHIA  =       0
 NHPARM =       0 NPARM  =       0 NNB   =    2178 NRES   =     660
 NBONA  =       0 NTHETA =       0 NPHIA =       0 NUMBND =       0
 NUMANG =       0 NPTRA  =       0 NATYP =       1 NPHB   =       0
 IFBOX  =       1 NMXRS  =       0 IFCAP =       0 NEXTRA =       0
 NCOPY  =       0

     BOX TYPE: RECTILINEAR

--------------------------------------------------------------------------------
   2.  CONTROL  DATA  FOR  THE  RUN
--------------------------------------------------------------------------------

vdw0.6

General flags:
     imin    =       0, nmropt  =       0

Nature and format of input:
     ntx     =       5, irest   =       1, ntrx    =       1

Nature and format of output:
     ntxo    =       1, ntpr    =    1000, ntrx    =       1, ntwr    =    1000
     iwrap   =       1, ntwx    =    1000, ntwv    =       0, ntwe    =       0
     ioutfm  =       1, ntwprt  =       0, idecomp =       0, rbornstat=      0

Potential function:
     ntf     =       1, ntb     =       2, igb     =       0, nsnb    =      25
     ipol    =       0, gbsa    =       0, iesp    =       0
     cut     =   9.00000
     scnb    =   2.00000, scee    =   1.20000

Frozen or restrained atoms:
     ibelly  =       0, ntr     =       0

Molecular dynamics:
     nstlim  =    600000, nscm    =      1000, nrespa  =         1
     t       =   0.00000, dt      =   0.00100, vlimit  =  20.00000

Langevin dynamics temperature regulation:
     ig      =      -1
     temp0   = 298.15000, tempi   =   0.00000, gamma_ln=   1.00000

Pressure regulation:
     ntp     =       1
     pres0   =   1.01300, comp    =  44.60000, taup    =   1.00000

Ewald parameters:
     verbose =       0, ew_type =       0, nbflag  =       1, use_pme =       1
     vdwmeth =       1, eedmeth =       1, netfrc  =       1
     Box X =   27.099   Box Y =   27.099   Box Z =   27.099
     Alpha =   90.000   Beta  =   90.000   Gamma =   90.000
     NFFT1 =   28       NFFT2 =   28       NFFT3 =   28
     Cutoff=    9.000   Tol   =0.113E-08
     Ewald Coefficient =  0.45000
     Interpolation order =    5

--------------------------------------------------------------------------------
   3.  ATOMIC COORDINATES AND VELOCITIES
--------------------------------------------------------------------------------

l04_in_wat
 begin time read from input coords =   125.000 ps

--------------------------------------------------------------------------------
   4.  RESULTS
 NSTEP =     1000   TIME(PS) =     126.000  TEMP(K) =   297.32  PRESS =  -185.8
 Etot   =     -4050.5029  EKtot   =      1777.7978  EPtot      =     -5828.3007
 BOND   =       576.0325  ANGLE   =       256.6710  DIHED      =        -2.4591
 1-4 NB =         6.1737  1-4 EEL =         0.0000  VDWAALS    =      2969.7214
 EELEC  =     -6768.8145  EHBOND  =         0.0000  RESTRAINT  =         0.0000
 EKCMT  =      1777.7978  VIRIAL  =      3717.5076  VOLUME     =     19913.1733
 EPOLZ  =     -2865.6256
 Dipole convergence: rms =  0.901E-02 iters =   4.00
                                                    Density    =         1.0026
 ------------------------------------------------------------------------------

      A V E R A G E S   O V E R  600000 S T E P S

 NSTEP =   600000   TIME(PS) =     725.000  TEMP(K) =   297.51  PRESS =     0.5
 Etot   =     -3997.6427  EKtot   =      1778.9319  EPtot      =     -5776.5746
 BOND   =       551.5722  ANGLE   =       269.7723  DIHED      =        -1.5794
 1-4 NB =         6.8251  1-4 EEL =         0.0000  VDWAALS    =      2835.5589
 EELEC  =     -6651.9665  EHBOND  =         0.0000  RESTRAINT  =         0.0000
 EKCMT  =      1778.9319  VIRIAL  =      3557.4696  VOLUME     =     19603.0450
 EPOLZ  =     -2786.7572
 Dipole convergence: rms =  0.875E-02 iters =   4.00
                                                    Density    =         1.0186
 ------------------------------------------------------------------------------

      R M S  F L U C T U A T I O N S

 NSTEP =   600000   TIME(PS) =     725.000  TEMP(K) =     5.46  PRESS =   706.2
 Etot   =        60.6671  EKtot   =        32.6655  EPtot      =        50.0738
 BOND   =        18.7726  ANGLE   =        14.6055  DIHED      =         1.3895
 1-4 NB =         1.1950  1-4 EEL =         0.0000  VDWAALS    =        69.3603
 EELEC  =        66.2458  EHBOND  =         0.0000  RESTRAINT  =         0.0000
 EKCMT  =        32.6655  VIRIAL  =       612.4421  VOLUME     =       140.9519
 EPOLZ  =        40.8170
 Dipole convergence: rms =  0.128E-03 iters =   0.00
                                                    Density    =         0.0073
 ------------------------------------------------------------------------------
