-------------------------------------------------------
          Amber 14 SANDER                              2014
          -------------------------------------------------------

  [-O]verwriting output

File Assignments:

 Here is the input file:

NPT production 600 ps
 &cntrl
  imin=0, irest=1, ntx=5,
  ntb=2, cut=9.0, iamoeba=1,
  ntf=1, ntc=1,
  ntt=3, temp0=298.15, gamma_ln=1.0, ig=-1,
  ntp=1, pres0=1.013, taup=1.0,
  nstlim=600000, dt=0.001,
  ntpr=1000, ntwr=1000, ntwx=1000,
  ioutfm=1, iwrap=1,
 /
 &ewald
  order=5, ew_coeff=0.45,
 /
 &amoeba
  ee_dsum_cut=7.0, dipole_scf_tol=0.01, amoeba_verbose=0,
  dipole_scf_iter_max=50, do_vdw_longrange=1, do_vdw_taper=1,
  sor_coefficient=0.7,
   soft_lambda=0.4, soft_alpha=0.7, soft_expo=5,
   vdw_longrange_lambda=0.4,
 /
/

--------------------------------------------------------------------------------
   1.  RESOURCE   USE:
--------------------------------------------------------------------------------

 getting new box info from bottom of inpcrd

 NATOM  =    2006 NTYPES =       1 NBONH =       0 MBONA  =       0
 NTHETH =       0 MTHETA =       0 NPHIH =       0 MPHIA  =       0
 NHPARM =       0 NPARM  =       0 NNB   =    2178 NRES   =     660
 NBONA  =       0 NTHETA =       0 NPHIA =       0 NUMBND =       0
 NUMANG =       0 NPTRA  =       0 NATYP =       1 NPHB   =       0
 IFBOX  =       1 NMXRS  =       0 IFCAP =       0 NEXTRA =       0
 NCOPY  =       0

     BOX TYPE: RECTILINEAR

--------------------------------------------------------------------------------
   2.  CONTROL  DATA  FOR  THE  RUN
--------------------------------------------------------------------------------

vdw0.4

General flags:
     imin    =       0, nmropt  =       0

Nature and format of input:
     ntx     =       5, irest   =       1, ntrx    =       1

Nature and format of output:
     ntxo    =       1, ntpr    =    1000, ntrx    =       1, ntwr    =    1000
     iwrap   =       1, ntwx    =    1000, ntwv    =       0, ntwe    =       0
     ioutfm  =       1, ntwprt  =       0, idecomp =       0, rbornstat=      0

Potential function:
     ntf     =       1, ntb     =       2, igb     =       0, nsnb    =      25
     ipol    =       0, gbsa    =       0, iesp    =       0
     cut     =   9.00000
     scnb    =   2.00000, scee    =   1.20000

Frozen or restrained atoms:
     ibelly  =       0, ntr     =       0

Molecular dynamics:
     nstlim  =    600000, nscm    =      1000, nrespa  =         1
     t       =   0.00000, dt      =   0.00100, vlimit  =  20.00000

Langevin dynamics temperature regulation:
     ig      =      -1
     temp0   = 298.15000, tempi   =   0.00000, gamma_ln=   1.00000

Pressure regulation:
     ntp     =       1
     pres0   =   1.01300, comp    =  44.60000, taup    =   1.00000

Ewald parameters:
     verbose =       0, ew_type =       0, nbflag  =       1, use_pme =       1
     vdwmeth =       1, eedmeth =       1, netfrc  =       1
     Box X =   27.099   Box Y =   27.099   Box Z =   27.099
     Alpha =   90.000   Beta  =   90.000   Gamma =   90.000
     NFFT1 =   28       NFFT2 =   28       NFFT3 =   28
     Cutoff=    9.000   Tol   =0.113E-08
     Ewald Coefficient =  0.45000
     Interpolation order =    5

--------------------------------------------------------------------------------
   3.  ATOMIC COORDINATES AND VELOCITIES
--------------------------------------------------------------------------------

l04_in_wat
 begin time read from input coords =   125.000 ps

--------------------------------------------------------------------------------
   4.  RESULTS
 NSTEP =     1000   TIME(PS) =     126.000  TEMP(K) =   294.46  PRESS =   661.2
 Etot   =     -4034.6499  EKtot   =      1760.7035  EPtot      =     -5795.3534
 BOND   =       543.2947  ANGLE   =       252.1131  DIHED      =        -1.9422
 1-4 NB =         5.7231  1-4 EEL =         0.0000  VDWAALS    =      2981.1426
 EELEC  =     -6734.3388  EHBOND  =         0.0000  RESTRAINT  =         0.0000
 EKCMT  =      1760.7035  VIRIAL  =      2943.7665  VOLUME     =     19969.3510
 EPOLZ  =     -2841.3460
 Dipole convergence: rms =  0.900E-02 iters =   4.00
                                                    Density    =         0.9998
 ------------------------------------------------------------------------------

      A V E R A G E S   O V E R  600000 S T E P S

 NSTEP =   600000   TIME(PS) =     725.000  TEMP(K) =   297.49  PRESS =     0.5
 Etot   =     -4004.0022  EKtot   =      1778.8555  EPtot      =     -5782.8576
 BOND   =       551.8552  ANGLE   =       269.5173  DIHED      =        -1.7117
 1-4 NB =         6.7559  1-4 EEL =         0.0000  VDWAALS    =      2828.7324
 EELEC  =     -6651.2897  EHBOND  =         0.0000  RESTRAINT  =         0.0000
 EKCMT  =      1778.8555  VIRIAL  =      3557.3288  VOLUME     =     19528.8703
 EPOLZ  =     -2786.7170
 Dipole convergence: rms =  0.875E-02 iters =   4.00
                                                    Density    =         1.0224
 ------------------------------------------------------------------------------

      R M S  F L U C T U A T I O N S

 NSTEP =   600000   TIME(PS) =     725.000  TEMP(K) =     5.38  PRESS =   712.7
 Etot   =        60.8615  EKtot   =        32.1587  EPtot      =        50.5797
 BOND   =        18.4105  ANGLE   =        14.6108  DIHED      =         1.3123
 1-4 NB =         1.1857  1-4 EEL =         0.0000  VDWAALS    =        71.0954
 EELEC  =        67.4426  EHBOND  =         0.0000  RESTRAINT  =         0.0000
 EKCMT  =        32.1587  VIRIAL  =       615.6060  VOLUME     =       157.9323
 EPOLZ  =        41.4106
 Dipole convergence: rms =  0.131E-03 iters =   0.00
                                                    Density    =         0.0083
 ------------------------------------------------------------------------------
